38
 Converted from pdb file
 C	-0.35400	5.06900	11.34200
 C	2.05900	7.44400	8.67600
 H	-4.18700	2.42700	15.98600
 C	0.21500	6.26200	11.78500
 C	0.65600	5.46900	9.17700
 C	1.22500	6.66200	9.61900
 C	3.58300	9.31400	8.08500
 C	4.77600	9.64300	6.02700
 C	4.11800	10.52800	8.49600
 C	-2.71200	2.41700	12.87700
 C	-3.90500	2.08700	14.93500
 C	3.95400	8.86700	6.80000
 H	3.86000	10.94600	9.52400
 C	-3.08300	2.86400	14.16200
 H	-1.69700	2.80400	10.89900
 C	-3.24700	1.20200	12.46600
 H	0.04800	6.60900	12.85800
 Cl	1.43600	8.01900	11.33800
 H	2.56900	8.92700	10.06300
 C	4.95300	11.23100	7.68100
 C	-4.08200	0.49900	13.28100
 H	0.82300	5.12100	8.10400
 H	3.57500	7.86700	6.40300
 C	-1.84900	3.16600	11.96900
 C	2.72000	8.56500	8.99300
 C	0.98500	7.04600	10.95100
 H	5.05900	9.30300	4.97600
 C	-0.11400	4.68500	10.01100
 C	-1.18800	4.28700	12.28600
 H	-2.69800	3.86500	14.55000
 N	-4.41300	0.91700	14.51900
 N	5.28400	10.81300	6.44300
 H	-2.98800	0.78400	11.43700
 H	-4.53100	-0.48600	12.92300
 H	2.17200	7.10000	7.59500
 H	-1.30000	4.63100	13.36700
 H	-0.56400	3.71200	9.62400
 H	5.40300	12.21600	8.03900
